grid_simulations/EVs_20kW/Result_no_control/output_current_offpeak.csv
# Result_no_control/output_current_offpeak.csv run at 2000-01-01 00:01:00 EST on 907 links
link_name,currA_mag,currA_angle,currB_mag,currB_angle,currC_mag,currC_angle
Source_Impedance,0.166895,-0.384961,0.136221,3.824525,0.156510,1.889304
TR1,0.166895,-0.384961,0.136221,3.824525,0.156510,1.889304
LINE1,4.916986,-0.841189,3.888850,3.347451,3.307629,1.253214
LINE2,4.916986,-0.841189,3.888850,3.347451,3.307629,1.253214
LINE3,4.916986,-0.841189,3.888850,3.347451,3.307629,1.253214
LINE4,4.916986,-0.841189,3.888850,3.347451,3.307629,1.253214
LINE5,4.916986,-0.841189,3.888850,3.347451,3.307629,1.253214
LINE6,4.916986,-0.841189,3.888850,3.347451,3.307629,1.253214
LINE7,4.916986,-0.841189,3.888850,3.347451,3.307629,1.253214
LINE8,4.916986,-0.841189,3.888850,3.347451,3.307629,1.253214
LINE9,4.916986,-0.841189,3.888850,3.347451,3.307629,1.253214
LINE10,4.916986,-0.841189,3.888850,3.347451,3.307629,1.253214
LINE11,4.916986,-0.841189,3.888850,3.347451,3.307629,1.253214
LINE12,4.916986,-0.841189,3.888850,3.347451,3.307629,1.253214
LINE13,4.916986,-0.841189,3.888850,3.347451,3.307629,1.253214
LINE14,4.916986,-0.841189,3.888850,3.347451,3.307629,1.253214
LINE15,0.000000,4.197500,0.000000,3.687998,0.000000,1.550503
LINE16,4.916986,-0.841189,3.888850,3.347451,3.307629,1.253214
LINE17,0.000000,3.978831,0.000000,3.760162,0.000000,1.539688
LINE18,4.916986,-0.841189,3.888850,3.347451,3.307629,1.253214
LINE19,0.000000,3.580308,0.000000,0.000000,0.000000,1.551776
LINE20,4.916986,-0.841189,3.888850,3.347451,3.307629,1.253214
LINE21,0.000000,3.580308,0.000000,0.000000,0.000000,1.552487
LINE22,4.916986,-0.841189,3.888850,3.347451,3.307629,1.253214
LINE23,0.000000,4.168311,0.000000,3.475431,0.000000,1.557064
LINE24,4.916986,-0.841189,3.888850,3.347451,3.307629,1.253214
LINE25,0.000000,-1.377059,0.000000,3.835491,0.000000,1.550178
LINE26,0.768293,-0.841294,0.000000,1.384905,0.000000,-1.536226
LINE27,4.148693,-0.841170,3.888850,3.347451,3.307629,1.253214
LINE28,0.000000,4.687457,0.000000,3.675260,0.000000,1.544668
LINE29,0.150316,-0.841297,0.000000,-0.911618,0.000000,-1.474725
LINE30,0.617976,-0.841294,0.000000,1.280231,0.000000,-1.530250
LINE31,4.148693,-0.841170,3.888850,3.347451,3.307629,1.253214
LINE32,0.000000,-1.478619,0.000000,3.683390,0.000000,1.558776
LINE33,0.150316,-0.841297,0.000000,2.536019,0.000000,-1.488937
LINE34,0.617976,-0.841294,0.000000,1.326005,0.000000,4.711114
LINE35,0.000000,3.805665,0.471831,3.347460,0.000000,2.842249
LINE36,4.148693,-0.841170,3.417019,3.347450,3.307629,1.253214
LINE37,0.000000,4.545560,0.000000,3.727387,0.000000,1.554913
LINE38,0.617976,-0.841294,0.000000,0.246637,0.000000,4.665150
LINE39,0.000000,3.853010,0.233828,3.347460,0.000000,2.984184
LINE40,0.000000,2.896072,0.238003,3.347460,0.000000,-1.474865
LINE41,4.148693,-0.841170,3.417019,3.347450,3.307629,1.253214
LINE42,0.000000,-1.045288,0.000000,-1.197725,0.000000,1.406403
LINE43,0.000000,4.687457,0.000000,4.687457,0.000000,1.542487
LINE44,0.617976,-0.841294,0.000000,-0.767956,0.000000,-1.557742
LINE45,0.000000,3.805213,0.233828,3.347460,0.000000,2.524941
LINE46,0.000000,0.445649,0.238003,3.347460,0.000000,1.548053
LINE47,4.148693,-0.841170,3.417019,3.347450,3.307629,1.253214
LINE48,0.000000,-1.189876,0.000000,-1.383085,0.000000,1.369371
LINE49,0.000000,3.116661,0.000000,-1.007726,0.000000,1.463774
LINE50,0.617976,-0.841294,0.000000,0.245428,0.000000,-1.509115
LINE51,0.000000,3.193571,0.233828,3.347460,0.000000,2.294594
LINE52,4.148693,-0.841170,3.417019,3.347450,3.307629,1.253214
LINE53,0.000000,0.520081,0.000000,1.468621,0.000000,4.704018
LINE54,0.000000,-1.011132,0.000000,-0.605473,0.000000,1.450820
LINE55,0.000000,2.794910,0.000000,-0.810330,0.000000,1.506365
LINE56,0.617976,-0.841294,0.000000,0.072482,0.000000,-1.521632
LINE57,0.000000,3.377855,0.233828,3.347460,0.000000,2.113467
LINE58,4.148693,-0.841170,3.417019,3.347450,3.307629,1.253214
LINE59,0.000000,0.769684,0.000000,1.252915,0.000000,-1.371044
LINE60,0.000000,-0.968554,0.000000,4.020313,0.000000,1.551157
LINE61,0.000000,2.825204,0.000000,-1.132081,0.000000,1.498821
LINE62,0.617976,-0.841294,0.000000,-0.851283,0.000000,-1.507981
LINE63,0.000000,3.635592,0.233828,3.347460,0.000000,4.059774
LINE64,3.559790,-0.841159,3.417019,3.347450,3.307629,1.253214
LINE65,0.588903,-0.841235,0.000000,0.996789,0.000000,-1.487665
LINE66,0.000000,1.226647,0.000000,0.617140,0.000000,4.698824
LINE67,0.000000,-1.002990,0.000000,3.299089,0.000000,1.544166
LINE68,0.000000,3.116661,0.000000,-0.190081,0.000000,1.509839
LINE69,0.617976,-0.841294,0.000000,2.548466,0.000000,-1.552266
LINE70,0.000000,3.079661,0.233828,3.347460,0.000000,4.651053
LINE71,3.559790,-0.841159,3.417019,3.347450,3.307629,1.253214
LINE72,0.204654,-0.841236,0.000000,3.825694,0.000000,1.651078
LINE73,0.384249,-0.841235,0.000000,0.143162,0.000000,2.387353
LINE74,0.000000,0.693258,0.000000,-0.045001,0.000000,4.598748
LINE75,0.000000,-1.109235,0.000000,2.769190,0.000000,1.388129
LINE76,0.000000,3.205710,0.000000,-0.810330,0.000000,1.502313
LINE77,0.000000,0.806213,0.233828,3.347460,0.000000,1.444381
LINE78,3.559790,-0.841159,3.417019,3.347450,3.307629,1.253214
LINE79,0.000000,1.039538,0.000000,3.597791,0.000000,4.149237
LINE80,0.000000,-0.994396,0.000000,2.342511,0.000000,1.442264
LINE81,0.000000,3.193433,0.000000,-0.650417,0.000000,1.508736
LINE82,0.000000,0.615825,0.233828,3.347460,0.000000,1.516467
LINE83,3.559790,-0.841159,3.417019,3.347450,3.307629,1.253214
LINE84,0.000000,2.156266,0.000000,1.722270,0.000000,3.576370
LINE85,0.000000,-1.015008,0.000000,2.390096,0.000000,1.426239
LINE86,0.000000,3.187968,0.000000,-0.920987,0.000000,1.519548
LINE87,3.559790,-0.841159,3.417019,3.347450,3.307629,1.253214
LINE88,0.000000,-1.339156,0.000000,3.653165,0.000000,2.741333
LINE89,0.000000,-0.912794,0.000000,1.733585,0.000000,1.483764
LINE90,0.000000,3.172159,0.000000,-1.007726,0.000000,1.514015
LINE91,3.559790,-0.841159,3.417019,3.347450,3.307629,1.253214
LINE92,0.000000,-1.066454,0.000000,0.372077,0.000000,1.499793
LINE93,0.000000,3.116661,0.000000,3.902059,0.000000,-0.024932
LINE94,3.559790,-0.841159,3.417019,3.347450,3.307629,1.253214
LINE95,0.000000,4.679187,0.000000,0.165802,0.000000,1.901682
LINE96,0.000000,3.580308,0.000000,1.545864,0.000000,-1.486786
LINE97,3.559790,-0.841159,3.417019,3.347450,3.307629,1.253214
LINE98,0.000000,4.388541,0.000000,1.128949,0.000000,4.526614
LINE99,0.000000,0.000000,0.000000,0.438716,0.000000,-1.502009
LINE100,3.559790,-0.841159,3.417019,3.347450,3.307629,1.253214
LINE101,0.000000,-1.542306,0.000000,2.639515,0.000000,3.967777
LINE102,0.000000,1.545864,0.000000,0.000000,0.000000,4.690631
LINE103,0.363400,-0.841219,0.609758,3.347466,0.442637,1.253193
LINE104,3.196390,-0.841152,2.807261,3.347447,2.864992,1.253217
LINE105,0.000000,-1.511822,0.000000,2.547408,0.000000,3.694029
LINE106,0.363400,-0.841219,0.609758,3.347466,0.442637,1.253193
LINE107,3.196390,-0.841152,2.807261,3.347447,2.864992,1.253217
LINE108,0.000000,4.610874,0.000000,1.544946,0.000000,4.187857
LINE109,0.363400,-0.841219,0.609758,3.347466,0.442637,1.253193
LINE110,3.196390,-0.841152,2.807261,3.347447,2.864992,1.253217
LINE111,0.000000,4.621742,0.000000,1.169692,0.000000,3.870204
LINE112,0.363400,-0.841219,0.609758,3.347466,0.442637,1.253193
LINE113,3.196390,-0.841152,2.807261,3.347447,2.864992,1.253217
LINE114,0.000000,4.618709,0.000000,1.159882,0.000000,3.861202
LINE115,0.363400,-0.841219,0.609758,3.347466,0.442637,1.253193
LINE116,0.213035,-0.841214,0.371715,3.347472,0.455183,1.253202
LINE117,2.983355,-0.841148,2.435546,3.347443,2.409808,1.253220
LINE118,0.000000,4.651227,0.000000,1.108027,0.000000,3.758889
LINE119,0.363400,-0.841219,0.609758,3.347466,0.442637,1.253193
LINE120,0.000000,3.187968,0.000000,0.438716,0.000000,1.758250
LINE121,0.213035,-0.841214,0.371715,3.347472,0.455183,1.253202
LINE122,2.983355,-0.841148,2.435546,3.347443,2.409808,1.253220
LINE123,0.000000,4.690842,0.000000,1.166242,0.000000,3.530273
LINE124,0.363400,-0.841219,0.609758,3.347466,0.442637,1.253193
LINE125,0.000000,2.825204,0.000000,0.220047,0.000000,1.676764
LINE126,0.213035,-0.841214,0.371715,3.347472,0.455183,1.253202
LINE127,2.983355,-0.841148,2.435546,3.347443,2.409808,1.253220
LINE128,0.000000,-1.486646,0.000000,1.383746,0.000000,3.775082
LINE129,0.363400,-0.841219,0.609758,3.347466,0.442637,1.253193
LINE130,0.000000,2.951512,0.000000,0.220047,0.000000,1.776026
LINE131,0.213035,-0.841214,0.000000,-1.298978,0.000000,-1.360928
LINE132,0.000000,-0.714196,0.371715,3.347472,0.455183,1.253202
LINE133,2.983355,-0.841148,2.435546,3.347443,2.409808,1.253220
LINE134,0.000000,4.604683,0.000000,1.334181,0.000000,3.876847
LINE135,0.363400,-0.841219,0.609758,3.347466,0.442637,1.253193
LINE136,0.000000,2.653013,0.000000,-0.024932,0.000000,3.116661
LINE137,0.213035,-0.841214,0.000000,-1.253810,0.000000,-1.341035
LINE138,0.000000,-0.710406,0.371715,3.347472,0.455183,1.253202
LINE139,2.983355,-0.841148,2.435546,3.347443,2.409808,1.253220
LINE140,0.000000,4.574151,0.000000,1.259142,0.000000,3.854730
LINE141,0.363400,-0.841219,0.609758,3.347466,0.442637,1.253193
LINE142,0.000000,0.760466,0.000000,0.140217,0.000000,4.572036
LINE143,0.213035,-0.841214,0.000000,-1.231467,0.000000,-1.404491
LINE144,0.000000,-0.706643,0.371715,3.347472,0.455183,1.253202
LINE145,2.983355,-0.841148,2.435546,3.347443,2.409808,1.253220
LINE146,0.000000,4.423124,0.000000,1.584083,0.000000,4.069471
LINE147,0.363400,-0.841219,0.609758,3.347466,0.442637,1.253193
LINE148,0.000000,1.082217,0.000000,0.438716,0.000000,1.810902
LINE149,0.213035,-0.841214,0.000000,-0.928526,0.000000,-1.380517
LINE150,0.000000,-0.706295,0.000000,2.979770,0.455183,1.253202
LINE151,0.000000,2.568247,0.371715,3.347472,0.000000,1.409047
LINE152,2.983355,-0.841148,2.435546,3.347443,2.409808,1.253220
LINE153,0.000000,-0.479885,0.000000,0.437860,0.000000,4.162782
LINE154,0.363400,-0.841219,0.609758,3.347466,0.442637,1.253193
LINE155,0.000000,0.438716,0.000000,0.533667,0.000000,1.688774
LINE156,0.213035,-0.841214,0.000000,-0.967746,0.000000,-1.399525
LINE157,0.000000,-0.710449,0.000000,2.973283,0.455183,1.253202
LINE158,0.000000,2.679027,0.371715,3.347472,0.000000,1.407556
LINE159,2.983355,-0.841148,2.435546,3.347443,2.409808,1.253220
LINE160,0.000000,-1.235954,0.000000,-1.235954,0.000000,3.248160
LINE161,0.000000,2.773100,0.204642,3.347465,0.000000,1.666193
LINE162,0.363400,-0.841219,0.405116,3.347466,0.442637,1.253193
LINE163,0.000000,-0.024932,0.000000,0.438716,0.000000,4.532997
LINE164,0.213035,-0.841214,0.000000,-1.046174,0.000000,-1.373999
LINE165,0.000000,-0.706777,0.000000,2.973054,0.455183,1.253202
LINE166,0.000000,2.483907,0.371715,3.347472,0.000000,1.406118
LINE167,2.983355,-0.841148,2.435546,3.347443,2.409808,1.253220
LINE168,0.000000,4.309301,0.000000,1.185842,0.000000,2.019300
LINE169,0.000000,3.377573,0.204642,3.347465,0.000000,4.161008
LINE170,0.363400,-0.841219,0.405116,3.347466,0.442637,1.253193
LINE171,0.000000,0.220047,0.000000,0.957862,0.000000,3.116661
LINE172,0.213035,-0.841214,0.000000,-0.903025,0.000000,-1.405375
LINE173,0.000000,-0.742692,0.000000,3.029650,0.000000,-0.216889
LINE174,0.000000,-0.442272,0.000000,1.297301,0.455183,1.253202
LINE175,0.000000,2.763468,0.371715,3.347472,0.000000,1.316695
LINE176,2.983355,-0.841148,2.435546,3.347443,2.409808,1.253220
LINE177,0.000000,3.684306,0.204642,3.347465,0.000000,4.696938
LINE178,0.363400,-0.841219,0.405116,3.347466,0.000000,-0.726083
LINE179,0.000000,2.548655,0.000000,-0.216255,0.442637,1.253193
LINE180,0.000000,0.296819,0.000000,1.082217,0.000000,1.569908
LINE181,0.213035,-0.841214,0.000000,-0.882655,0.000000,-1.448538
LINE182,0.000000,-0.815750,0.000000,3.070590,0.000000,-0.241546
LINE183,0.000000,-0.424903,0.000000,1.287707,0.455183,1.253202
LINE184,0.000000,2.722343,0.371715,3.347472,0.000000,1.082559
LINE185,2.983355,-0.841148,2.435546,3.347443,2.409808,1.253220
LINE186,0.363400,-0.841219,0.405116,3.347466,0.000000,-0.418182
LINE187,0.000000,2.538534,0.000000,-0.242883,0.442637,1.253193
LINE188,0.000000,1.545864,0.000000,-0.024932,0.000000,4.694903
LINE189,0.213035,-0.841214,0.000000,-1.091961,0.000000,-1.456108
LINE190,0.000000,1.701112,0.000000,0.202207,0.000000,3.388188
LINE191,0.000000,-0.957130,0.000000,2.955082,0.000000,-0.062836
LINE192,0.000000,-0.416023,0.000000,1.378993,0.455183,1.253202
LINE193,0.000000,2.762376,0.371715,3.347472,0.000000,0.733539
LINE194,2.983355,-0.841148,2.435546,3.347443,2.409808,1.253220
LINE195,0.363400,-0.841219,0.405116,3.347466,0.000000,-0.323652
LINE196,0.000000,3.031094,0.000000,2.857043,0.221318,1.253193
LINE197,0.000000,2.517835,0.000000,-0.079912,0.221319,1.253194
LINE198,0.000000,4.687457,0.000000,0.760466,0.000000,4.711378
LINE199,0.213035,-0.841214,0.000000,-1.087941,0.000000,-1.413883
LINE200,0.000000,4.577663,0.000000,2.399381,0.000000,-0.405623
LINE201,0.000000,-1.023904,0.000000,2.927847,0.000000,-0.504119
LINE202,0.000000,-0.355180,0.000000,1.141291,0.455183,1.253202
LINE203,0.000000,2.744460,0.371715,3.347472,0.000000,-0.766023
LINE204,2.983355,-0.841148,2.435546,3.347443,2.409808,1.253220
LINE205,0.363400,-0.841219,0.000000,3.905524,0.000000,4.643568
LINE206,0.000000,1.632418,0.405116,3.347466,0.000000,-0.360406
LINE207,0.000000,1.347328,0.000000,0.187633,0.221318,1.253193
LINE208,0.000000,2.315888,0.000000,0.550562,0.221319,1.253194
LINE209,0.000000,4.687457,0.000000,0.000000,0.000000,-1.558910
LINE210,0.213035,-0.841214,0.000000,-1.183851,0.000000,-1.410966
LINE211,0.000000,-1.122442,0.000000,2.838752,0.000000,-0.096921
LINE212,0.000000,-0.346686,0.000000,0.980258,0.455183,1.253202
LINE213,0.000000,2.716573,0.371715,3.347472,0.000000,-1.415453
LINE214,2.983355,-0.841148,2.435546,3.347443,2.409808,1.253220
LINE215,0.363400,-0.841219,0.000000,3.298842,0.000000,4.627646
LINE216,0.000000,1.818083,0.405116,3.347466,0.000000,0.027741
LINE217,0.000000,1.380223,0.000000,3.497080,0.221319,1.253194
LINE218,0.000000,0.000000,0.000000,2.331263,0.000000,4.683581
LINE219,0.213035,-0.841214,0.000000,-1.292378,0.000000,-1.403076
LINE220,0.000000,-1.109885,0.000000,2.737264,0.000000,-0.279556
LINE221,0.000000,-0.432504,0.000000,1.137872,0.455183,1.253202
LINE222,0.000000,2.722466,0.371715,3.347472,0.000000,-1.451136
LINE223,2.983355,-0.841148,2.435546,3.347443,2.409808,1.253220
LINE224,0.363400,-0.841219,0.000000,1.214662,0.000000,4.172165
LINE225,0.000000,1.733795,0.405116,3.347466,0.000000,0.192337
LINE226,0.000000,1.547140,0.000000,3.765300,0.221319,1.253194
LINE227,0.213035,-0.841214,0.000000,4.608616,0.000000,-1.360051
LINE228,0.000000,-0.920608,0.000000,2.556052,0.000000,-0.114398
LINE229,0.000000,-0.413051,0.000000,1.144709,0.455183,1.253202
LINE230,0.000000,2.822621,0.371715,3.347472,0.000000,-1.470206
LINE231,2.983355,-0.841148,2.435546,3.347443,2.409808,1.253220
LINE232,0.000000,-0.190565,0.405116,3.347466,0.000000,1.592787
LINE233,0.000000,0.160241,0.000000,0.160241,0.000000,0.437887
LINE234,0.000000,-0.422683,0.000000,3.862237,0.221319,1.253194
LINE235,0.213035,-0.841214,0.000000,4.578479,0.000000,-1.128616
LINE236,0.000000,-0.715906,0.000000,2.778607,0.000000,-0.094036
LINE237,0.000000,-0.488024,0.000000,1.037360,0.455183,1.253202
LINE238,0.000000,2.786132,0.371715,3.347472,0.000000,-1.429243
LINE239,2.983355,-0.841148,2.435546,3.347443,2.409808,1.253220
LINE240,0.000000,-0.215769,0.405116,3.347466,0.000000,1.557720
LINE241,0.000000,3.067594,0.000000,3.067594,0.221319,1.253194
LINE242,0.213035,-0.841214,0.000000,3.724189,0.000000,1.030643
LINE243,0.000000,-1.023898,0.000000,2.839815,0.000000,0.131156
LINE244,0.000000,-0.503883,0.000000,0.926658,0.455183,1.253202
LINE245,0.000000,2.733640,0.371715,3.347472,0.000000,-1.518431
LINE246,2.983355,-0.841148,2.435546,3.347443,2.409808,1.253220
LINE247,0.000000,0.596641,0.200470,3.347466,0.000000,-1.569537
LINE248,0.000000,0.584762,0.204646,3.347466,0.000000,1.641905
LINE249,0.000000,2.760099,0.000000,2.290538,0.221319,1.253194
LINE250,0.213035,-0.841214,0.000000,2.814082,0.000000,-1.119911
LINE251,0.000000,-0.944553,0.000000,2.545062,0.000000,-0.292063
LINE252,0.000000,-0.515002,0.000000,0.964788,0.455183,1.253202
LINE253,0.000000,2.720710,0.371715,3.347472,0.000000,-1.521578
LINE254,0.213058,-0.841203,0.000000,3.260047,0.000000,-1.548342
LINE255,2.770297,-0.841143,2.435546,3.347443,2.409808,1.253220
LINE256,0.000000,-0.153021,0.000000,3.381133,0.221319,1.253194
LINE257,0.213035,-0.841214,0.000000,3.745488,0.000000,-1.176924
LINE258,0.000000,-0.892328,0.000000,2.483216,0.000000,-0.463319
LINE259,0.000000,-0.451929,0.000000,0.967728,0.455183,1.253202
LINE260,0.000000,2.730441,0.371715,3.347472,0.000000,-1.545005
LINE261,0.213058,-0.841203,0.000000,3.276195,0.000000,-1.545280
LINE262,2.770297,-0.841143,2.435546,3.347443,2.409808,1.253220
LINE263,0.000000,-0.377959,0.000000,2.704375,0.221319,1.253194
LINE264,0.213035,-0.841214,0.000000,3.714623,0.000000,1.405427
LINE265,0.000000,-0.914224,0.000000,2.568700,0.000000,-0.198285
LINE266,0.000000,-0.443584,0.000000,0.960496,0.455183,1.253202
LINE267,0.000000,2.930629,0.183769,3.347472,0.000000,1.709242
LINE268,0.000000,2.545987,0.187945,3.347471,0.000000,-1.561462
LINE269,0.213058,-0.841203,0.000000,3.347861,0.000000,-1.553589
LINE270,0.000000,-0.458957,0.000000,3.853009,0.208811,1.253217
LINE271,2.770297,-0.841143,2.435546,3.347443,2.200998,1.253221
LINE272,0.213035,-0.841214,0.000000,-1.171635,0.000000,4.429186
LINE273,0.000000,-0.358379,0.000000,-0.603005,0.000000,-0.608657
LINE274,0.000000,-0.398301,0.000000,0.799257,0.455183,1.253202
LINE275,0.000000,2.362293,0.183769,3.347472,0.000000,-1.381872
LINE276,0.000000,1.824692,0.187945,3.347471,0.000000,-1.569682
LINE277,0.213058,-0.841203,0.000000,3.233371,0.000000,-1.557707
LINE278,0.000000,-0.420386,0.000000,3.708801,0.208811,1.253217
LINE279,2.770297,-0.841143,2.435546,3.347443,2.200998,1.253221
LINE280,0.213035,-0.841214,0.000000,-0.928922,0.000000,1.449536
LINE281,0.000000,0.416337,0.000000,-0.262380,0.000000,2.348661
LINE282,0.000000,-0.743958,0.000000,0.975842,0.455183,1.253202
LINE283,0.000000,1.401740,0.187945,3.347471,0.000000,4.711086
LINE284,0.213058,-0.841203,0.000000,3.328137,0.000000,-1.565026
LINE285,0.000000,-0.466327,0.000000,3.639714,0.208811,1.253217
LINE286,1.278595,-0.841132,0.822976,3.347424,0.442678,1.253223
LINE287,1.491702,-0.841153,1.612571,3.347453,1.758320,1.253220
LINE288,0.213035,-0.841214,0.000000,3.028152,0.000000,2.553795
LINE289,0.000000,4.031344,0.000000,1.021627,0.000000,0.064438
LINE290,0.000000,0.858353,0.000000,3.834783,0.225504,1.253203
LINE291,0.000000,-0.910314,0.000000,1.445049,0.229679,1.253202
LINE292,0.000000,2.122039,0.187945,3.347471,0.000000,-1.542714
LINE293,0.213058,-0.841203,0.000000,3.364892,0.000000,-1.563819
LINE294,0.000000,-0.419020,0.000000,3.530334,0.208811,1.253217
LINE295,1.278595,-0.841132,0.822976,3.347424,0.442678,1.253223
LINE296,1.491702,-0.841153,1.612571,3.347453,1.758320,1.253220
LINE297,0.000000,0.601168,0.000000,3.362069,0.225504,1.253203
LINE298,0.000000,-1.115105,0.000000,2.648056,0.229679,1.253202
LINE299,0.000000,1.521573,0.187945,3.347471,0.000000,-1.483496
LINE300,0.213058,-0.841203,0.000000,3.350597,0.000000,-1.564125
LINE301,0.000000,-0.303721,0.000000,3.612973,0.208811,1.253217
LINE302,1.278595,-0.841132,0.822976,3.347424,0.442678,1.253223
LINE303,1.491702,-0.841153,1.612571,3.347453,1.758320,1.253220
LINE304,0.000000,0.763829,0.000000,4.484772,0.225504,1.253203
LINE305,0.000000,3.659255,0.000000,0.858811,0.229679,1.253202
LINE306,0.000000,2.673449,0.187945,3.347471,0.000000,-1.562339
LINE307,0.213058,-0.841203,0.000000,3.375491,0.000000,-1.564935
LINE308,0.000000,-0.291068,0.000000,4.141290,0.208811,1.253217
LINE309,1.278595,-0.841132,0.822976,3.347424,0.442678,1.253223
LINE310,1.491702,-0.841153,1.612571,3.347453,1.758320,1.253220
LINE311,0.000000,1.524737,0.000000,1.524737,0.225504,1.253203
LINE312,0.000000,3.397979,0.000000,0.449034,0.229679,1.253202
LINE313,0.000000,-1.179639,0.187945,3.347471,0.000000,1.160058
LINE314,0.213058,-0.841203,0.000000,3.420440,0.000000,4.709240
LINE315,0.000000,-0.738797,0.000000,-0.200316,0.208811,1.253217
LINE316,0.259026,-0.841191,0.000000,2.412802,0.000000,-1.544584
LINE317,1.019569,-0.841117,0.822976,3.347424,0.442678,1.253223
LINE318,1.491702,-0.841153,1.612571,3.347453,1.758320,1.253220
LINE319,0.000000,1.528303,0.000000,4.600036,0.225504,1.253203
LINE320,0.000000,-0.243468,0.000000,1.252226,0.229679,1.253202
LINE321,0.213058,-0.841203,0.000000,3.366993,0.000000,4.710965
LINE322,0.000000,2.670909,0.000000,0.361399,0.208811,1.253217
LINE323,0.259026,-0.841191,0.000000,2.407634,0.000000,-1.544729
LINE324,1.019569,-0.841117,0.822976,3.347424,0.442678,1.253223
LINE325,1.491702,-0.841153,1.612571,3.347453,1.758320,1.253220
LINE326,0.000000,3.688843,0.000000,-1.286604,0.229679,1.253202
LINE327,0.213058,-0.841203,0.000000,3.494243,0.000000,4.700804
LINE328,0.000000,3.347700,0.000000,-0.520955,0.208811,1.253217
LINE329,0.259026,-0.841191,0.000000,2.424614,0.000000,-1.544378
LINE330,0.000000,4.232332,0.000000,0.345309,0.225517,1.253224
LINE331,1.019569,-0.841117,0.822976,3.347424,0.217161,1.253223
LINE332,1.491702,-0.841153,1.612571,3.347453,1.758320,1.253220
LINE333,0.213058,-0.841203,0.000000,3.623938,0.000000,4.708017
LINE334,0.000000,2.704613,0.000000,0.939297,0.208811,1.253217
LINE335,0.259026,-0.841191,0.000000,2.431397,0.000000,-1.549337
LINE336,0.000000,-0.843051,0.000000,-0.185307,0.225517,1.253224
LINE337,0.000000,-0.083442,0.225566,3.347442,0.000000,1.531479
LINE338,1.019569,-0.841117,0.597410,3.347417,0.217161,1.253223
LINE339,1.491702,-0.841153,1.612571,3.347453,1.758320,1.253220
LINE340,0.213058,-0.841203,0.000000,3.727549,0.000000,4.697221
LINE341,0.000000,-0.233655,0.000000,0.143278,0.208811,1.253217
LINE342,0.142046,-0.841191,0.000000,3.740816,0.000000,-1.482587
LINE343,0.116979,-0.841191,0.000000,2.435393,0.000000,-1.548753
LINE344,0.000000,-0.085701,0.225566,3.347442,0.000000,1.530483
LINE345,1.019569,-0.841117,0.597410,3.347417,0.217161,1.253223
LINE346,1.491702,-0.841153,1.612571,3.347453,1.758320,1.253220
LINE347,0.213058,-0.841203,0.000000,3.543972,0.000000,4.704824
LINE348,0.142046,-0.841191,0.000000,-1.344569,0.000000,4.508219
LINE349,0.116979,-0.841191,0.000000,2.096139,0.000000,4.710709
LINE350,0.000000,-0.059463,0.225566,3.347442,0.000000,1.519615
LINE351,1.019569,-0.841117,0.597410,3.347417,0.217161,1.253223
LINE352,1.491702,-0.841153,1.612571,3.347453,1.758320,1.253220
LINE353,0.213058,-0.841203,0.000000,3.357510,0.000000,4.702517
LINE354,0.116979,-0.841191,0.000000,1.741208,0.000000,-1.552934
LINE355,0.000000,-0.273090,0.225566,3.347442,0.000000,1.484451
LINE356,1.019569,-0.841117,0.597410,3.347417,0.217161,1.253223
LINE357,1.491702,-0.841153,1.612571,3.347453,1.758320,1.253220
LINE358,0.213058,-0.841203,0.000000,3.562696,0.000000,-1.555563
LINE359,0.116979,-0.841191,0.000000,2.203656,0.000000,-1.535096
LINE360,0.000000,0.238190,0.225566,3.347442,0.000000,-1.489575
LINE361,1.019569,-0.841117,0.597410,3.347417,0.217161,1.253223
LINE362,1.491702,-0.841153,1.612571,3.347453,1.758320,1.253220
LINE363,0.213058,-0.841203,0.000000,3.172587,0.000000,-1.554011
LINE364,0.116979,-0.841191,0.000000,1.450822,0.000000,-1.568219
LINE365,0.000000,-1.360594,0.225566,3.347442,0.000000,1.183079
LINE366,1.019569,-0.841117,0.597410,3.347417,0.217161,1.253223
LINE367,1.491702,-0.841153,1.612571,3.347453,1.758320,1.253220
LINE368,0.213058,-0.841203,0.000000,3.310062,0.000000,1.623789
LINE369,0.116979,-0.841191,0.000000,2.225015,0.000000,4.705191
LINE370,0.000000,-0.083130,0.225566,3.347442,0.000000,-1.529546
LINE371,1.019569,-0.841117,0.597410,3.347417,0.217161,1.253223
LINE372,1.491702,-0.841153,1.612571,3.347453,1.758320,1.253220
LINE373,0.213058,-0.841203,0.000000,2.655680,0.000000,-1.552226
LINE374,0.116979,-0.841191,0.000000,0.873548,0.000000,4.624774
LINE375,0.000000,-0.174707,0.225566,3.347442,0.000000,4.619854
LINE376,1.019569,-0.841117,0.597410,3.347417,0.217161,1.253223
LINE377,1.491702,-0.841153,1.612571,3.347453,1.532797,1.253220
LINE378,0.000000,2.011785,0.000000,3.745298,0.225523,1.253221
LINE379,0.213058,-0.841203,0.000000,1.384839,0.000000,1.546633
LINE380,0.116979,-0.841191,0.000000,1.526714,0.000000,4.642000
LINE381,0.000000,3.777280,0.225566,3.347442,0.000000,1.929092
LINE382,1.019569,-0.841117,0.597410,3.347417,0.217161,1.253223
LINE383,1.491702,-0.841153,1.612571,3.347453,1.532797,1.253220
LINE384,0.000000,-0.236660,0.000000,4.583132,0.225523,1.253221
LINE385,0.000000,2.377447,0.000000,2.362923,0.000000,-1.562784
LINE386,0.213058,-0.841203,0.000000,3.103019,0.000000,1.553986
LINE387,0.116979,-0.841191,0.000000,-0.884039,0.000000,4.515437
LINE388,0.000000,-0.397430,0.225566,3.347442,0.000000,4.528765
LINE389,1.019569,-0.841117,0.597410,3.347417,0.217161,1.253223
LINE390,1.491702,-0.841153,1.612571,3.347453,1.532797,1.253220
LINE391,0.000000,-0.252775,0.000000,4.590491,0.225523,1.253221
LINE392,0.000000,2.360052,0.000000,2.473831,0.000000,-1.563282
LINE393,0.000000,4.104344,0.225566,3.347442,0.000000,0.571391
LINE394,1.019569,-0.841117,0.597410,3.347417,0.217161,1.253223
LINE395,0.000000,3.149920,0.000000,0.572565,0.471938,1.253223
LINE396,1.491702,-0.841153,1.612571,3.347453,1.060859,1.253218
LINE397,0.000000,-0.346450,0.000000,4.655841,0.225523,1.253221
LINE398,0.000000,2.331527,0.000000,2.444366,0.000000,-1.564206
LINE399,0.000000,3.835419,0.225566,3.347442,0.000000,1.320155
LINE400,1.019569,-0.841117,0.597410,3.347417,0.217161,1.253223
LINE401,0.000000,3.140801,0.000000,0.533777,0.471938,1.253223
LINE402,1.491702,-0.841153,1.612571,3.347453,1.060859,1.253218
LINE403,0.000000,-0.277178,0.000000,4.306127,0.225523,1.253221
LINE404,0.000000,2.024886,0.000000,2.708039,0.000000,4.704353
LINE405,0.000000,0.618041,0.225566,3.347442,0.000000,4.711094
LINE406,1.019569,-0.841117,0.597410,3.347417,0.217161,1.253223
LINE407,0.000000,3.072586,0.000000,0.593484,0.471938,1.253223
LINE408,1.491702,-0.841153,1.612571,3.347453,1.060859,1.253218
LINE409,0.000000,-0.336567,0.000000,3.601493,0.000000,0.352522
LINE410,0.000000,-0.508080,0.000000,4.579951,0.225523,1.253221
LINE411,0.000000,1.765036,0.000000,2.603884,0.000000,-1.530947
LINE412,1.019569,-0.841117,0.597410,3.347417,0.217161,1.253223
LINE413,0.000000,3.112658,0.000000,0.536928,0.471938,1.253223
LINE414,1.491702,-0.841153,1.612571,3.347453,1.060859,1.253218
LINE415,0.000000,-0.245356,0.000000,3.586104,0.000000,0.375929
LINE416,0.000000,-0.713272,0.000000,4.395773,0.225523,1.253221
LINE417,0.000000,2.054507,0.000000,2.857262,0.000000,4.676967
LINE418,1.019569,-0.841117,0.597410,3.347417,0.217161,1.253223
LINE419,0.000000,3.055080,0.000000,0.285243,0.471938,1.253223
LINE420,1.491702,-0.841153,1.612571,3.347453,1.060859,1.253218
LINE421,0.000000,-0.104197,0.000000,3.524241,0.000000,0.206540
LINE422,0.000000,-0.726956,0.000000,-1.059400,0.225523,1.253221
LINE423,0.000000,2.029900,0.000000,2.571666,0.000000,4.643599
LINE424,1.019569,-0.841117,0.597410,3.347417,0.217161,1.253223
LINE425,0.000000,0.099889,0.000000,0.636832,0.000000,-1.271825
LINE426,0.000000,3.080195,0.000000,0.411288,0.471938,1.253223
LINE427,1.491702,-0.841153,1.612571,3.347453,1.060859,1.253218
LINE428,0.000000,-0.413302,0.000000,3.549732,0.000000,0.505019
LINE429,0.000000,-0.437941,0.000000,-0.483849,0.225523,1.253221
LINE430,0.000000,1.957109,0.000000,2.599093,0.000000,4.652484
LINE431,1.019569,-0.841117,0.597410,3.347417,0.217161,1.253223
LINE432,0.000000,-0.236572,0.000000,1.679812,0.000000,-0.265603
LINE433,0.000000,3.104939,0.000000,0.417964,0.471938,1.253223
LINE434,1.491702,-0.841153,1.612571,3.347453,1.060859,1.253218
LINE435,0.000000,-0.468198,0.000000,3.555902,0.000000,-0.301048
LINE436,0.000000,-0.661845,0.000000,-0.661845,0.225523,1.253221
LINE437,0.000000,2.072012,0.000000,2.672682,0.000000,4.610487
LINE438,1.019569,-0.841117,0.597410,3.347417,0.217161,1.253223
LINE439,0.000000,2.722556,0.000000,4.345937,0.000000,4.576609
LINE440,0.000000,3.102572,0.000000,0.515107,0.471938,1.253223
LINE441,1.491702,-0.841153,1.612571,3.347453,1.060859,1.253218
LINE442,0.000000,-0.560934,0.000000,3.624045,0.000000,-0.493548
LINE443,0.000000,3.389000,0.000000,-0.956088,0.225523,1.253221
LINE444,0.000000,1.985775,0.000000,2.646937,0.000000,4.545623
LINE445,1.019569,-0.841117,0.597410,3.347417,0.217161,1.253223
LINE446,0.000000,-0.714280,0.000000,0.821469,0.000000,-1.212919
LINE447,0.000000,3.128872,0.000000,0.530569,0.471938,1.253223
LINE448,1.491702,-0.841153,1.612571,3.347453,1.060859,1.253218
LINE449,0.000000,-0.875979,0.000000,3.630142,0.000000,-1.171852
LINE450,0.000000,-0.105209,0.000000,2.164405,0.225523,1.253221
LINE451,0.000000,1.989340,0.000000,2.762689,0.000000,4.647417
LINE452,1.019569,-0.841117,0.597410,3.347417,0.217161,1.253223
LINE453,0.000000,0.943831,0.000000,-1.524872,0.000000,1.854519
LINE454,0.000000,3.121672,0.000000,0.494874,0.471938,1.253223
LINE455,1.491702,-0.841153,1.612571,3.347453,1.060859,1.253218
LINE456,0.000000,-1.131850,0.000000,3.586159,0.000000,-0.778640
LINE457,0.000000,3.928553,0.000000,-0.050816,0.225523,1.253221
LINE458,0.000000,2.023389,0.000000,2.599506,0.000000,4.676240
LINE459,0.819005,-0.841114,0.597410,3.347417,0.217161,1.253223
LINE460,0.000000,-0.634377,0.000000,-0.634377,0.000000,1.529990
LINE461,0.200564,-0.841133,0.000000,0.734900,0.000000,1.674732
LINE462,0.000000,3.074736,0.000000,0.533701,0.471938,1.253223
LINE463,1.491702,-0.841153,1.612571,3.347453,1.060859,1.253218
LINE464,0.000000,-0.872025,0.000000,3.667518,0.000000,0.150088
LINE465,0.000000,1.698833,0.000000,2.563644,0.000000,4.689622
LINE466,0.819005,-0.841114,0.597410,3.347417,0.217161,1.253223
LINE467,0.000000,-0.654381,0.000000,2.546912,0.000000,1.726893
LINE468,0.000000,3.896374,0.000000,3.896374,0.000000,2.130982
LINE469,0.200564,-0.841133,0.000000,0.765685,0.000000,1.703669
LINE470,0.000000,3.045174,0.000000,0.580853,0.471938,1.253223
LINE471,1.491702,-0.841153,1.612571,3.347453,1.060859,1.253218
LINE472,0.000000,-0.189833,0.000000,3.947294,0.000000,-0.484765
LINE473,0.000000,1.726015,0.000000,2.522989,0.000000,4.690471
...